 507 
  final structure  
     C       4.05468500       0.30645000      -0.11728600 
     C       3.61185400      -1.03057400       0.09638600 
     C       3.10632200       1.33791400      -0.23709200 
     C       5.48938700       0.38640800      -0.19681300 
     C       2.26602500      -1.37374500       0.18662300 
     C       1.76150000       0.99740800      -0.15113600 
     C       6.09114500      -0.82081000      -0.03803700 
     H       6.02506500       1.30938300      -0.38015500 
     S       4.96853800      -2.14180000       0.21730600 
     O       3.48740900       2.63989200      -0.47286700 
     C       1.31575500      -0.33980000       0.06729800 
     H       7.15203900      -1.03184400      -0.05670700 
     S       0.41021100       2.11021700      -0.29188200 
     O       1.91484500      -2.67527300       0.43778100 
     C       3.80396700       3.38770900       0.70935900 
     C      -0.10919700      -0.42447900       0.15264300 
     C      -0.73909400       0.78242400      -0.01684000 
     C       1.32856200      -3.38826400      -0.66269100 
     H       2.94107400       3.44761500       1.38261200 
     H       4.64900900       2.94193600       1.24709200 
     H      -0.65875700      -1.33889500       0.33788900 
     H       0.35713400      -2.97009100      -0.94475600 
     H       1.99734100      -3.38169400      -1.53095200 
     C      -2.16353400       1.01899100       0.00236100 
     C      -3.22101200       0.13004500       0.03522900 
     S      -2.82091200       2.66305800      -0.01328200 
     C      -4.47053400       2.11025900       0.01027100 
     C      -4.50173300       0.75087600       0.03820000 
     C      -3.42893400      -1.33702000       0.04211800 
     C      -5.54753700      -0.30311000       0.04994600 
     N      -4.82451200      -1.51340000       0.04849700 
     O      -2.63279800      -2.26214600       0.04603800 
     O      -6.75797300      -0.20931400       0.05826900 
     C      -5.45334800      -2.82168400       0.06267700 
     H      -6.53142200      -2.66435500       0.10269500 
     H      -5.19316800      -3.38300300      -0.83882200 
     C       4.15003369       4.67426563       0.27923125 
     C       3.75322986       7.71687034      -3.85526502 
     H       3.40074325       8.57921081      -3.27582136 
     H       4.84378743       7.80097808      -3.94061729 
     C       3.35036251       6.39847102      -3.18689416 
     H       2.25386282       6.32994697      -3.14393010 
     C       3.92199294       6.23614533      -1.77212960 
     H       3.68217291       5.55544269      -3.80971946 
     H       3.59724664       7.08754753      -1.15749837 
     H       5.02019332       6.29591820      -1.81649868 
     C       3.51400701       4.91721194      -1.10107187 
     H       2.41861857       4.87502335      -1.02039065 
     H       3.79573356       4.08447408      -1.76136352 
     H       5.24393696       4.67272985       0.16757979 
     C       3.76881470       5.67781540       1.38232702 
     H       4.08448556       6.68895724       1.09248533 
     H       4.34586276       5.43207655       2.28413096 
     C       2.27689274       5.69132018       1.73559506 
     H       2.07542531       6.37510713       2.56822002 
     H       1.65894016       6.01422564       0.89004532 
     H       1.93245564       4.69304565       2.03406041 
     H       3.33325328       7.80006613      -4.86427645 
     C       1.15148060      -4.70370529      -0.21743108 
     C       3.15922811      -9.40493941      -0.83086709 
     H       3.19917655      -9.60675414       0.24677282 
     H       2.20666284      -9.80039174      -1.20491493 
     C       3.28733483      -7.90562173      -1.11867542 
     H       4.26275442      -7.54619053      -0.76059879 
     C       2.17388058      -7.06740848      -0.47657893 
     H       3.28384534      -7.73944046      -2.20544948 
     H       2.17416610      -7.24668115       0.60784656 
     H       1.19784524      -7.42157769      -0.84196185 
     C       2.30548936      -5.56473488      -0.76119701 
     H       3.26286408      -5.20229942      -0.36089795 
     H       2.36285519      -5.41625760      -1.84907151 
     H       0.21025633      -5.05190224      -0.66681791 
     C       0.98910437      -4.68431059       1.31309764 
     H       0.78990207      -5.69995896       1.68030457 
     H       0.09236214      -4.09809101       1.55563088 
     C       2.18674749      -4.09529032       2.06776174 
     H       1.98891191      -4.04761092       3.14479740 
     H       3.09365200      -4.69447540       1.92780054 
     H       2.40780455      -3.07662438       1.72465242 
     H       3.96565621      -9.97518823      -1.30615221 
     C      -5.03359845      -3.55240744       1.18064550 
     C      -5.31634171      -2.79657862       2.48320662 
     H      -5.55394599      -4.51800441       1.16205232 
     H      -3.96143703      -3.75326294       1.06398151 
     H      -6.39169203      -2.57949120       2.55474315 
     H      -4.81114975      -1.82049524       2.45741031 
     C      -4.87149164      -3.56229927       3.73587946 
     H      -5.37662406      -4.53956356       3.76090307 
     C      -5.15031246      -2.81372422       5.04557017 
     H      -3.79533653      -3.78020972       3.66352433 
     H      -6.22648219      -2.59596698       5.11701626 
     H      -4.64514336      -1.83658851       5.01963436 
     C      -4.70509104      -3.58031198       6.29751137 
     H      -5.21009516      -4.55759456       6.32436743 
     C      -4.98356378      -2.83239110       7.60775315 
     H      -3.62881710      -3.79824638       6.22698926 
     H      -6.05895438      -2.61524588       7.67877961 
     H      -4.47844317      -1.85626595       7.58144867 
     C      -4.53555742      -3.60573673       8.85222004 
     H      -5.04988835      -4.57206600       8.92460431 
     H      -3.45748013      -3.80737294       8.82654070 
     H      -4.74773653      -3.04613536       9.77048731 
     C      -7.13258459       4.54933825      -0.73276284 
     C      -7.42565406       4.50044327       0.66047359 
     C      -7.90211477       5.37418089      -1.57247812 
     C      -6.03885949       3.68010448      -1.07814048 
     C      -8.45649557       5.23414595       1.24031056 
     C      -8.93461309       6.10508173      -0.99662209 
     C      -5.52994374       3.02540309      -0.00246922 
     H      -5.67592348       3.55313610      -2.09036799 
     S      -6.33592270       3.41001486       1.50515567 
     O      -7.67329782       5.43079020      -2.92909231 
     C      -9.22711326       6.06131787       0.39874726 
     S     -10.03201342       7.17836946      -1.84979338 
     O      -8.65223686       5.17148898       2.59609163 
     C      -6.66477051       6.37232757      -3.32085450 
     C     -10.30982864       6.92747794       0.74865676 
     C     -10.84757307       7.59066886      -0.32517670 
     C      -9.82317502       4.45966799       3.02659976 
     H      -6.93725020       7.39120623      -3.02238549 
     H      -5.69218747       6.11776237      -2.88353868 
     H     -10.68215925       7.06693058       1.75583687 
     H     -10.74230024       4.96598848       2.71523170 
     H      -9.81941276       3.43437280       2.63937720 
     C     -11.95282504       8.51962078      -0.29639579 
     C     -12.81904143       8.85311339       0.72733116 
     S     -12.39559560       9.46352906      -1.72759746 
     C     -13.71903425      10.25311222      -0.91984577 
     C     -13.79960263       9.81962910       0.36672979 
     C     -13.05828337       8.47010736       2.13858181 
     C     -14.67821579      10.07348155       1.53648546 
     N     -14.17053728       9.22934332       2.54507970 
     O     -12.47410330       7.68622199       2.86930979 
     O     -15.62800939      10.81976177       1.65887913 
     C     -14.73063532       9.15289563       3.88212448 
     H     -15.55283064       9.86710799       3.93205406 
     H     -15.10146320       8.14482488       4.08646035 
     C      -6.58249783       6.30154973      -4.71664163 
     C      -9.24339098       4.55892363      -8.76532759 
     H      -9.12509308       5.48938262      -9.33443612 
     H      -8.42588274       3.88804001      -9.05733854 
     C      -9.22782709       4.82652862      -7.25690331 
     H     -10.07493743       5.47521936      -6.99146515 
     C      -7.92463379       5.47330682      -6.76901511 
     H      -9.38781438       3.88305674      -6.71563523 
     H      -7.76356919       6.40954991      -7.32184823 
     H      -7.07749599       4.81955187      -7.02698315 
     C      -7.91152689       5.74568857      -5.25838852 
     H      -8.73345649       6.43053248      -5.00622645 
     H      -8.13341674       4.80759830      -4.72965531 
     H      -5.78288190       5.57967791      -4.93711432 
     C      -6.16163317       7.68180598      -5.25238966 
     H      -6.03307291       7.63598796      -6.34208552 
     H      -5.16991242       7.92033166      -4.84469144 
     C      -7.12960293       8.81766615      -4.90072498 
     H      -6.74745781       9.78345602      -5.25091505 
     H      -8.11549010       8.67110372      -5.35639330 
     H      -7.27505223       8.89109295      -3.81549527 
     H     -10.18431890       4.09350945      -9.08068489 
     C      -9.76380675       4.43272213       4.42508084 
     C      -8.79564764       1.17621762       8.29377602 
     H      -8.12078061       1.87290421       8.80643101 
     H      -9.79919599       1.32144470       8.71267306 
     C      -8.78845481       1.41111095       6.77985004 
     H      -7.77840416       1.22830094       6.38585611 
     C      -9.23686750       2.82397337       6.38309375 
     H      -9.44186118       0.67403614       6.29149862 
     H      -8.58812803       3.55665167       6.88353057 
     H     -10.25155873       3.00361406       6.77002581 
     C      -9.22478181       3.06032433       4.86640379 
     H      -8.20325602       2.92006470       4.48564474 
     H      -9.83154604       2.28071817       4.38384946 
     H     -10.80155322       4.53249452       4.77468133 
     C      -8.96269179       5.65658883       4.90427334 
     H      -8.95218364       5.68948170       6.00193984 
     H      -9.49522950       6.56226641       4.58368936 
     C      -7.52344909       5.71440639       4.37886930 
     H      -7.02415246       6.63631870       4.69855450 
     H      -6.92129849       4.87349186       4.74131250 
     H      -7.50184080       5.68745463       3.28202054 
     H      -8.47512460       0.15822615       8.54350443 
     C     -13.75843076       9.47340439       4.83715978 
     C     -13.15168731      10.85629577       4.57762127 
     H     -14.23404111       9.42854353       5.82471590 
     H     -12.98976889       8.69133086       4.80548270 
     H     -13.94939567      11.61278368       4.58080608 
     H     -12.71447268      10.88111179       3.56923113 
     C     -12.07970317      11.24874189       5.60243588 
     H     -12.51740275      11.22291431       6.61168434 
     C     -11.46591083      12.63204812       5.35120247 
     H     -11.28189747      10.49089742       5.59963241 
     H     -12.26428801      13.38918140       5.35387304 
     H     -11.02874265      12.65714076       4.34178827 
     C     -10.39412265      13.02343951       6.37654075 
     H     -10.83060940      12.99887415       7.38634643 
     C      -9.77975488      14.40671908       6.12602910 
     H      -9.59511159      12.26686126       6.37430160 
     H     -10.57780164      15.16287662       6.12901025 
     H      -9.34290299      14.43121872       5.11745622 
     C      -8.71065604      14.78865473       7.15492357 
     H      -9.12632252      14.80672841       8.17004068 
     H      -7.88212841      14.06956309       7.15087231 
     H      -8.29167953      15.78036324       6.94910482 
     C     -15.32965536      12.63114072      -3.23038689 
     C     -16.33236324      12.76867853      -2.22786584 
     C     -15.44684997      13.35662879      -4.42938494 
     C     -14.30445572      11.70184863      -2.83482454 
     C     -17.44364380      13.59255368      -2.38099976 
     C     -16.55761137      14.17724697      -4.58646421 
     C     -14.51787549      11.18096761      -1.59876921 
     H     -13.46476663      11.43768118      -3.46536863 
     S     -15.97335626      11.77381226      -0.82380337 
     O     -14.51701755      13.23281445      -5.43737579 
     C     -17.56054400      14.32013525      -3.58235450 
     S     -16.91995517      15.15418469      -6.00012434 
     O     -18.34588603      13.70957112      -1.35501304 
     C     -13.37850057      14.09453711      -5.30205880 
     C     -18.57925319      15.24673421      -3.96782623 
     C     -18.39019843      15.77687367      -5.21895373 
     C     -19.62099274      13.08399961      -1.56922252 
     H     -13.67806725      15.14891002      -5.30157869 
     H     -12.82364041      13.87821965      -4.38156801 
     H     -19.42297370      15.52282408      -3.34782705 
     H     -20.17703848      13.56504849      -2.38009044 
     H     -19.49883069      12.01744260      -1.78994469 
     C     -19.24862388      16.72474004      -5.88978681 
     C     -20.49740251      17.20569673      -5.54511649 
     S     -18.76218086      17.48505751      -7.41315064 
     C     -20.23655262      18.39989306      -7.54237163 
     C     -21.03769073      18.13792006      -6.47502753 
     C     -21.49424844      17.01319036      -4.46585832 
     C     -22.38280242      18.55903298      -6.00804906 
     N     -22.57768303      17.84170873      -4.81011892 
     O     -21.46959755      16.31812453      -3.46287186 
     O     -23.17786565      19.33462205      -6.49831259 
     C     -23.77584804      17.95027614      -3.99780338 
     H     -24.42780670      18.68204180      -4.47536629 
     H     -24.28537310      16.98502144      -3.93345527 
     C     -12.56131837      13.84244591      -6.41050964 
     C     -12.75227437      11.64790706     -11.06416317 
     H     -12.26366253      12.49442051     -11.56246660 
     H     -11.96954706      10.92794356     -10.79459786 
     C     -13.53115593      12.10762431      -9.82755407 
     H     -14.32623911      12.80277583     -10.13326657 
     C     -12.64762820      12.78450305      -8.77120014 
     H     -14.04074236      11.24548985      -9.37395502 
     H     -12.13152502      13.63795519      -9.23312478 
     H     -11.85700665      12.08529464      -8.45877310 
     C     -13.42933518      13.24929187      -7.53456687 
     H     -14.19298882      13.97804398      -7.84102834 
     H     -13.98346138      12.39217273      -7.12579043 
     H     -11.83672710      13.08154302      -6.08633830 
     C     -11.79797571      15.13285435      -6.75895530 
     H     -11.10534614      14.94405420      -7.59002864 
     H     -11.16765309      15.40116705      -5.90027953 
     C     -12.69787305      16.32465685      -7.10623529 
     H     -12.10375319      17.22892677      -7.28155085 
     H     -13.28928007      16.14120215      -8.01048625 
     H     -13.39978604      16.54060623      -6.29078784 
     H     -13.41001033      11.16551089     -11.79634025 
     C     -20.32973730      13.23658395      -0.37155847 
     C     -21.89809433      10.48719792       3.68924056 
     H     -21.54924482      11.22993062       4.41744726 
     H     -22.95137582      10.70630288       3.47414509 
     C     -21.05293119      10.52447493       2.41193552 
     H     -20.01098350      10.27118851       2.65492533 
     C     -21.08913316      11.88338325       1.70008772 
     H     -21.40052268       9.74438847       1.71958334 
     H     -20.75236706      12.66076905       2.40035717 
     H     -22.13142481      12.13271321       1.44899372 
     C     -20.23825377      11.92164593       0.42302213 
     H     -19.19011195      11.71201235       0.67918154 
     H     -20.55370321      11.09916373      -0.23486991 
     H     -21.37817201      13.40239569      -0.65858441 
     C     -19.81073045      14.49500058       0.34696767 
     H     -20.39245691      14.66909916       1.26203494 
     H     -20.00317596      15.36267894      -0.29857194 
     C     -18.31746101      14.45430890       0.69236943 
     H     -17.99133753      15.39910217       1.14228855 
     H     -18.08369866      13.65478140       1.40454822 
     H     -17.70878321      14.28553243      -0.20501363 
     H     -21.85461844       9.50346927       4.17069017 
     C     -23.45053020      18.37093812      -2.70273126 
     C     -22.68076417      19.69571953      -2.72007753 
     H     -24.38628733      18.46393025      -2.13775706 
     H     -22.85920588      17.57537330      -2.23273585 
     H     -23.28324070      20.46284931      -3.22718370 
     H     -21.76763327      19.58097029      -3.32144905 
     C     -22.30335273      20.19461689      -1.31933809 
     H     -23.21744249      20.30848423      -0.71742068 
     C     -21.53214260      21.52073395      -1.32596222 
     H     -21.70112043      19.42618939      -0.81173049 
     H     -22.13484383      22.28845119      -1.83392435 
     H     -20.61847257      21.40612772      -1.92823722 
     C     -21.15527113      22.01865735       0.07520724 
     H     -22.06853623      22.13382258       0.67812969 
     C     -20.38397212      23.34482909       0.06950065 
     H     -20.55222390      21.25153277       0.58382131 
     H     -20.98665076      24.11161214      -0.43792811 
     H     -19.47107378      23.22975021      -0.53219074 
     C     -20.01210620      23.83389349       1.47306852 
     H     -20.90706727      23.99158055       2.08768020 
     H     -19.38008204      23.10308056       1.99270796 
     H     -19.46293765      24.78172533       1.43542338 
     C     -21.50198809      20.62239022     -10.19697134 
     C     -20.15137648      20.68747920     -10.64530145 
     C     -22.49412296      21.34380050     -10.88464819 
     C     -21.63692289      19.78986456      -9.03087474 
     C     -19.75704715      21.44716379     -11.74282068 
     C     -22.10244399      22.10628298     -11.97876291 
     C     -20.45612175      19.24888190      -8.63370446 
     H     -22.57782217      19.62904643      -8.51970535 
     S     -19.09549877      19.70714468      -9.63827473 
     O     -23.80704055      21.33336940     -10.46979587 
     C     -20.75159232      22.16947570     -12.43234168 
     S     -23.15987441      23.09875328     -12.96920669 
     O     -18.44593250      21.42691456     -12.14400792 
     C     -24.58087508      20.23907435     -10.98047778 
     C     -20.61239136      22.99120842     -13.59437478 
     C     -21.79164996      23.55812497     -14.00676335 
     C     -17.69735384      22.62733459     -11.89552396 
     H     -24.61518252      20.25587800     -12.07591527 
     H     -24.17495872      19.27630000     -10.64841787 
     H     -19.67952505      23.15951353     -14.11775107 
     H     -18.07384898      23.46889802     -12.48554436 
     H     -17.71953319      22.88620216     -10.83077923 
     C     -21.97264743      24.44197996     -15.13432808 
     C     -21.04356173      25.04758019     -15.95871459 
     S     -23.58949104      24.92095337     -15.67446515 
     C     -22.97304429      25.91551137     -16.96219260 
     C     -21.61391630      25.86722043     -16.97289987 
     C     -19.56968895      25.12256432     -16.09151201 
     C     -20.52012892      26.47639814     -17.77118689 
     N     -19.33905605      25.98438302     -17.17910823 
     O     -18.67646071      24.59029731     -15.45233977 
     O     -20.56669699      27.23006579     -18.72189123 
     C     -18.00748910      26.32228996     -17.64814040 
     H     -18.12308692      26.97062355     -18.51698912 
     H     -17.44590223      26.84336946     -16.86803179 
     C     -25.87466874      20.40153687     -10.47086627 
     C     -28.84928464      23.97591161      -8.26078447 
     H     -29.70414684      23.77382142      -8.91805383 
     H     -28.97486142      23.36328818      -7.35934232 
     C     -27.52433638      23.66216158      -8.96311737 
     H     -27.41358612      24.31207405      -9.84300440 
     C     -27.40155514      22.19624817      -9.39980071 
     H     -26.68743889      23.91165590      -8.29523906 
     H     -28.24699625      21.94900765     -10.05723426 
     H     -27.50361094      21.54607114      -8.51750828 
     C     -26.07590592      21.88358646     -10.10779299 
     H     -25.99196825      22.50429189     -11.01103404 
     H     -25.24688253      22.19395882      -9.45572208 
     H     -25.91448637      19.80442371      -9.54838960 
     C     -26.87582812      19.81396436     -11.48165743 
     H     -27.89494560      19.87674498     -11.07727858 
     H     -26.66371666      18.74173584     -11.59100606 
     C     -26.83535208      20.47203388     -12.86589658 
     H     -27.52076428      19.97207690     -13.55992194 
     H     -27.12364870      21.52860103     -12.82541698 
     H     -25.82807244      20.42095582     -13.29838853 
     H     -28.90382478      25.02798487      -7.95817387 
     C     -16.38147895      22.34641748     -12.28225235 
     C     -11.75513295      21.40985784     -10.22586357 
     H     -11.56806754      20.53792755     -10.86490734 
     H     -11.31830721      22.28378401     -10.72497404 
     C     -13.25472141      21.60488155      -9.98010219 
     H     -13.65625526      20.72789406      -9.45235552 
     C     -14.05652872      21.82902360     -11.26910766 
     H     -13.40749594      22.45992552      -9.30610960 
     H     -13.89052028      20.97737097     -11.94382715 
     H     -13.66014016      22.71227023     -11.79287954 
     C     -15.55964557      22.01948375     -11.02269139 
     H     -15.96398695      21.12096680     -10.53551536 
     H     -15.69709312      22.83672856     -10.30017748 
     H     -15.99140148      23.27358460     -12.72642966 
     C     -16.41301269      21.25544065     -13.36762579 
     H     -15.39487368      21.05935762     -13.72957676 
     H     -16.96666829      21.64701744     -14.23177595 
     C     -17.05741053      19.93807899     -12.92027640 
     H     -17.11034152      19.22377262     -13.74996476 
     H     -16.49243635      19.45974410     -12.11213805 
     H     -18.07970888      20.10181053     -12.55645146 
     H     -11.21109690      21.25675262      -9.28672060 
     C     -17.30726985      25.16349174     -18.00434214 
     C     -18.06716942      24.35044620     -19.05762083 
     H     -16.32194261      25.47070536     -18.37614155 
     H     -17.14702495      24.57713413     -17.09111168 
     H     -18.24296291      24.97452846     -19.94545004 
     H     -19.06184633      24.08767108     -18.67007701 
     C     -17.33458966      23.06975191     -19.47780888 
     H     -16.33872582      23.33305221     -19.86479544 
     C     -18.08748079      22.24844961     -20.53232910 
     H     -17.15799535      22.44577666     -18.58882104 
     H     -18.26391046      22.87313751     -21.42075560 
     H     -19.08320657      21.98583318     -20.14473981 
     C     -17.35404030      20.96806411     -20.95174976 
     H     -16.35818532      21.22985500     -21.33978335 
     C     -18.10629805      20.14609238     -22.00632881 
     H     -17.17744884      20.34258473     -20.06381657 
     H     -18.28214156      20.77059943     -22.89387134 
     H     -19.10100777      19.88375946     -21.61852335 
     C     -17.36612373      18.86956329     -22.41874422 
     H     -16.38139897      19.10206464     -22.84280590 
     H     -17.20642910      18.20854915     -21.55785795 
     H     -17.92807076      18.30533459     -23.17190420 
     C     -25.55455563      27.11757274     -19.30282667 
     C     -25.03401612      28.41903798     -19.04863179 
     C     -26.64204608      26.96756939     -20.18176203 
     C     -24.84904896      26.10692611     -18.55989911 
     C     -25.56084034      29.56860712     -19.63010559 
     C     -27.17250020      28.11434949     -20.76089311 
     C     -23.84591532      26.61896216     -17.80079452 
     H     -25.10530159      25.05542654     -18.59353413 
     S     -23.68186630      28.35897023     -17.92697271 
     O     -27.19593404      25.73254934     -20.43454156 
     C     -26.65020759      29.41801815     -20.51152248 
     S     -28.53607172      28.16908438     -21.86624919 
     O     -24.97991786      30.78397039     -19.37358254 
     C     -26.55011654      24.99715558     -21.48297530 
     C     -27.34409219      30.42592974     -21.25150958 
     C     -28.37011201      29.93241728     -22.01691036 
     C     -25.73534118      31.67393628     -18.53667223 
     H     -26.59267838      25.54231535     -22.43293950 
     H     -25.50275680      24.78852739     -21.23502734 
     H     -27.09820458      31.48024377     -21.23029377 
     H     -26.66366200      31.99427859     -19.02010055 
     H     -25.96608405      31.20154443     -17.57501255 
     C     -29.25814145      30.69718707     -22.86064777 
     C     -29.41155748      32.06369292     -22.99736025 
     S     -30.39567514      29.89855426     -23.95771185 
     C     -31.04031407      31.40416569     -24.54505253 
     C     -30.40885813      32.44486680     -23.93852130 
     C     -28.84298690      33.30133616     -22.41381467 
     C     -30.49393925      33.92678476     -23.97608233 
     N     -29.53259487      34.35627903     -23.03857458 
     H     -31.82882282      31.41477859     -25.28408120 
     O     -27.96935567      33.46884438     -21.57810211 
     O     -31.20441493      34.65682447     -24.63660379 
     C     -29.26647340      35.75331519     -22.74752105 
     H     -29.91091966      36.34915069     -23.39425630 
     H     -29.48428742      35.97584564     -21.69942260 
     C     -27.25050345      23.79116466     -21.60562952 
     C     -31.73438704      21.65123025     -20.25491681 
     H     -31.92961627      21.25459444     -21.25900765 
     H     -31.22610635      20.86478871     -19.68322162 
     C     -30.88634910      22.92560953     -20.31806427 
     H     -31.43441275      23.70305489     -20.86947878 
     C     -29.51674195      22.71082915     -20.97587530 
     H     -30.74150478      23.32016409     -19.30216413 
     H     -29.66719469      22.30508677     -21.98624875 
     H     -28.96465043      21.93878012     -20.41845201 
     C     -28.66944678      23.98907093     -21.04329286 
     H     -29.20304962      24.74713834     -21.63385782 
     H     -28.58307117      24.40792069     -20.03042002 
     H     -26.71885875      23.06595779     -20.97276170 
     C     -27.16558130      23.32295508     -23.06946979 
     H     -27.65847187      22.34766365     -23.17869266 
     H     -26.10846805      23.15213726     -23.31432738 
     C     -27.75719090      24.30935155     -24.08329025 
     H     -27.61100540      23.95417081     -25.10988388 
     H     -28.83393852      24.45099374     -23.93618580 
     H     -27.28029440      25.29426237     -24.00088320 
     H     -32.70293761      21.83695993     -19.77656525 
     C     -24.91720571      32.79032439     -18.32612064 
     C     -22.04766473      34.97019389     -14.64877655 
     H     -21.18803153      35.12661787     -15.31224860 
     H     -22.65222235      35.88543171     -14.67168392 
     C     -22.86947259      33.75291310     -15.08473274 
     H     -22.24655711      32.84910962     -15.02173588 
     C     -23.43323688      33.87921582     -16.50631184 
     H     -23.69864561      33.59883976     -14.37943864 
     H     -22.60140359      34.04515428     -17.20533632 
     H     -24.06397542      34.77926727     -16.56682446 
     C     -24.25244986      32.65719712     -16.94439478 
     H     -23.61180622      31.76430370     -16.92243522 
     H     -25.04035940      32.47613932     -16.19926132 
     H     -25.58935504      33.66043067     -18.31118413 
     C     -23.95980745      32.92786984     -19.52350536 
     H     -23.34668361      33.83181421     -19.40936589 
     H     -24.56226977      33.08818192     -20.42791764 
     C     -23.04590342      31.71662301     -19.74366980 
     H     -22.43439077      31.84313974     -20.64448268 
     H     -22.36097580      31.56231420     -18.90215294 
     H     -23.63164106      30.79667424     -19.86563779 
     H     -21.66348181      34.85080081     -13.62919099 
     C     -27.92296518      36.05643580     -22.99872526 
     C     -27.53088626      35.71470452     -24.44003726 
     H     -27.77786387      37.12385475     -22.79124713 
     H     -27.31456274      35.49490351     -22.27899512 
     H     -28.17973265      36.26485454     -25.13642511 
     H     -27.71991270      34.64814309     -24.62802357 
     C     -26.06422391      36.03141275     -24.75942166 
     H     -25.87515097      37.09879768     -24.57028867 
     C     -25.66168361      35.69273598     -26.20048195 
     H     -25.41511420      35.48132392     -24.06164741 
     H     -26.31135808      36.24292278     -26.89753404 
     H     -25.85130639      34.62539654     -26.38887627 
     C     -24.19491841      36.00982751     -26.51874047 
     H     -24.00450061      37.07719492     -26.33085878 
     C     -23.79150126      35.67142726     -27.95971448 
     H     -23.54446610      35.45973168     -25.82222004 
     H     -24.44074895      36.22154565     -28.65578124 
     H     -23.98093753      34.60486681     -28.14738916 
     C     -22.32521868      35.99152636     -28.26797243 
     H     -22.11362595      37.05817749     -28.12287965 
     H     -21.65035342      35.42932936     -27.61066075 
     H     -22.06835303      35.73904447     -29.30318321 
